[TITLE]
;;Project Title/Notes

[OPTIONS]
;;Option             Value
FLOW_UNITS           CMS
INFILTRATION         HORTON
FLOW_ROUTING         DYNWAVE
LINK_OFFSETS         DEPTH
MIN_SLOPE            0
ALLOW_PONDING        NO
SKIP_STEADY_STATE    NO

START_DATE           01/01/2019
START_TIME           00:00:00
REPORT_START_DATE    01/01/2019
REPORT_START_TIME    00:05:00
END_DATE             01/02/2019
END_TIME             00:00:00
SWEEP_START          01/01
SWEEP_END            12/31
DRY_DAYS             0
REPORT_STEP          00:05:00
WET_STEP             00:01:00
DRY_STEP             00:10:00
ROUTING_STEP         0:00:01 
RULE_STEP            00:00:00

INERTIAL_DAMPING     PARTIAL
NORMAL_FLOW_LIMITED  BOTH
FORCE_MAIN_EQUATION  D-W
VARIABLE_STEP        0.75
LENGTHENING_STEP     0
MIN_SURFAREA         0.10
MAX_TRIALS           12
HEAD_TOLERANCE       0.0002
SYS_FLOW_TOL         5
LAT_FLOW_TOL         5
MINIMUM_STEP         0.5
THREADS              2

[EVAPORATION]
;;Data Source    Parameters
;;-------------- ----------------
CONSTANT         1
DRY_ONLY         NO

[RAINGAGES]
;;Name           Format    Interval SCF      Source    
;;-------------- --------- ------ ------ ----------
; Name Format Interval SCF Source
R_1              INTENSITY 0:05     1.0      TIMESERIES ImaginaryRain   
R_2              INTENSITY 0:05     1.0      TIMESERIES ImaginaryRain   
R_3              INTENSITY 0:05     1.0      TIMESERIES ImaginaryRain   

[SUBCATCHMENTS]
;;Name           Rain Gage        Outlet           Area     %Imperv  Width    %Slope   CurbLen  SnowPack        
;;-------------- ---------------- ---------------- -------- -------- -------- -------- -------- ----------------
; Name Raingage Outlet Area %Imperv Width SlopeClength
sub_9006F        R_1              j_9006F          0.0390   66.667   11.2838  0.0000   0.0000                   
sub_90334        R_1              j_90334          0.1160   12.069   19.2156  0.0000   0.0000                   
sub_90335        R_1              j_90335          0.1930   79.793   24.7215  0.0000   0.0000                   
sub_90336        R_1              j_90336          0.0310   32.258   9.9336   0.0000   0.0000                   
sub_90363        R_1              j_90363          0.2160   79.630   23.6691  0.0000   0.0000                   
sub_90364        R_1              j_90364          0.0550   25.455   13.1106  0.0025   0.0000                   
sub_90365        R_1              j_90365          0.0090   0.000    5.3524   0.0077   0.0000                   
sub_90366        R_1              j_90366          0.0710   66.197   15.0333  0.0000   0.0000                   
sub_90367        R_1              j_90367          0.0650   43.077   14.3841  0.0066   0.0000                   
sub_90368        R_1              j_90368          0.0000   nan      0.0000   0.4056   0.0000                   
sub_90369        R_1              j_90369          0.1620   59.259   17.4808  0.0000   0.0000                   
sub_90370        R_1              j_90370          0.0730   72.603   15.2436  0.0435   0.0000                   
sub_90371        R_1              j_90371          0.0980   85.714   17.6619  0.0075   0.0000                   
sub_90372        R_1              j_90372          0.0380   36.842   10.9981  0.0000   0.0000                   
sub_90373        R_1              j_90373          0.0690   95.652   14.4943  0.0143   0.0000                   
sub_90374        R_1              j_90374          0.0000   nan      0.0000   0.0000   0.0000                   
sub_90375        R_1              j_90375          0.0850   80.000   14.7123  0.0021   0.0000                   
sub_90376        R_1              j_90376          0.0140   64.286   6.9099   0.0000   0.0000                   
sub_90377        R_1              j_90377          0.0710   78.873   13.3512  0.0022   0.0000                   
sub_90378        R_1              j_90378          0.0780   71.795   15.7570  0.0000   0.0000                   
sub_90379        R_1              j_90379          0.1140   52.632   19.0492  0.0111   0.0000                   
sub_90380        R_1              j_90380          0.1300   56.923   20.3421  0.0000   0.0000                   
sub_90381        R_1              j_90381          0.0780   56.410   15.6556  0.0159   0.0000                   
sub_90382        R_1              j_90382          0.0940   63.830   17.2977  0.0589   0.0000                   
sub_90383        R_1              j_90383          0.0810   69.136   16.1559  0.0021   0.0000                   
sub_90384        R_1              j_90384          0.0440   40.909   11.9683  0.1303   0.0000                   
sub_90385        R_1              j_90385          0.0650   73.846   14.3841  0.1130   0.0000                   
sub_90386        R_1              j_90386          0.1150   52.174   19.2156  0.0132   0.0000                   
sub_90387        R_1              j_90387          0.0750   62.667   15.5536  0.0000   0.0000                   
sub_90388        R_1              j_90388          0.0460   63.043   12.1005  0.0128   0.0000                   
sub_90389        R_1              j_90389          0.0610   59.016   14.1610  0.0000   0.0000                   
sub_90390        R_1              j_90390          0.0330   48.485   10.4031  0.0000   0.0000                   
sub_90391        R_1              j_90391          0.0400   0.000    11.2838  0.1351   0.0000                   
sub_90392        R_1              j_90392          0.0860   36.047   16.6412  0.0083   0.0000                   
sub_90393        R_1              j_90393          0.1410   36.879   21.1853  0.0210   0.0000                   
sub_90394        R_1              j_90394          0.0450   40.000   11.9683  0.0190   0.0000                   
sub_90395        R_1              j_90395          0.0560   76.786   13.2314  0.0161   0.0000                   
sub_90396        R_1              j_90396          0.0230   100.000  8.5564   0.0086   0.0000                   
sub_90397        R_1              j_90397          0.0630   46.032   14.1610  0.0332   0.0000                   
sub_90398        R_1              j_90398          0.0710   43.662   15.0333  0.0282   0.0000                   
sub_90399        R_1              j_90399          0.0760   68.421   15.4510  0.0032   0.0000                   
sub_90400        R_1              j_90400          0.0480   62.500   12.4889  0.0000   0.0000                   
sub_90401        R_1              j_90401          0.0770   77.922   15.7570  0.0072   0.0000                   
sub_90402        R_1              j_90402          0.0770   76.623   15.6556  0.0000   0.0000                   
sub_90403        R_1              j_90403          0.0450   62.222   12.1005  0.0000   0.0000                   
sub_90404        R_1              j_90404          0.0730   60.274   15.2436  0.0052   0.0000                   
sub_90405        R_1              j_90405          0.0780   56.410   13.5875  0.0036   0.0000                   
sub_90406        R_1              j_90406          0.0720   47.222   12.8655  0.0032   0.0000                   
sub_90407        R_1              j_90407          0.0560   48.214   13.3512  0.0034   0.0000                   
sub_90408        R_1              j_90408          0.1510   66.887   17.9302  0.0030   0.0000                   
sub_90427        R_1              j_90427          0.1570   61.146   22.3550  0.0000   0.0000                   
sub_90428        R_1              j_90428          0.0890   52.809   16.8314  0.0117   0.0000                   
sub_90430        R_1              j_90430          0.0490   77.551   12.4889  0.0000   0.0000                   
sub_90431        R_1              j_90431          0.0690   63.768   14.9271  0.0029   0.0000                   
sub_90433        R_1              j_90433          0.0240   50.000   8.7404   0.0000   0.0000                   
sub_90434        R_1              j_90434          0.0560   82.143   12.1005  0.0000   0.0000                   
sub_90435        R_1              j_90435          0.0850   68.235   13.5875  0.0023   0.0000                   
sub_90436        R_1              j_90436          0.0500   84.000   12.6157  0.0000   0.0000                   
sub_90437        R_1              j_90437          0.1110   74.775   16.2541  0.0020   0.0000                   
sub_90438        R_1              j_90438          0.0870   64.368   16.6412  0.0218   0.0000                   
sub_90439        R_1              j_90439          0.0500   64.000   12.6157  0.0000   0.0000                   
sub_90440        R_1              j_90440          0.1520   59.211   21.9962  0.0100   0.0000                   
sub_90441        R_1              j_90441          0.0690   33.333   14.8200  0.2331   0.0000                   
sub_90442        R_1              j_90442          0.1570   21.656   17.5716  0.0116   0.0000                   
sub_90443        R_1              j_90443          0.2210   41.629   26.4628  0.0199   0.0000                   
sub_90444        R_1              j_90444          0.0890   71.910   16.9257  0.0000   0.0000                   
sub_90445        R_1              j_90445          0.0770   50.649   15.6556  0.0864   0.0000                   
sub_90446        R_1              j_90446          0.0770   70.130   15.6556  0.0498   0.0000                   
sub_90447        R_1              j_90447          0.1140   53.509   18.9655  0.0022   0.0000                   
sub_90448        R_1              j_90448          0.1250   56.800   19.9471  0.0000   0.0000                   
sub_90449        R_1              j_90449          0.0540   59.259   13.1106  0.0077   0.0000                   
sub_90450        R_1              j_90450          0.0290   65.517   9.6078   0.0233   0.0000                   
sub_90451        R_1              j_90451          0.0890   56.180   16.9257  0.0173   0.0000                   
sub_90452        R_1              j_90452          0.0480   43.750   12.4889  0.0511   0.0000                   
sub_90453        R_1              j_90453          0.0830   71.084   16.2541  0.0095   0.0000                   
sub_90454        R_1              j_90454          0.0950   61.053   13.5875  0.0186   0.0000                   
sub_90455        R_1              j_90455          0.0840   78.571   16.3518  0.0073   0.0000                   
sub_90456        R_1              j_90456          0.1500   42.000   14.1610  0.0073   0.0000                   
sub_90457        R_1              j_90457          0.1630   42.945   14.9271  0.0000   0.0000                   
sub_90459        R_1              j_90459          0.1820   30.769   24.0692  0.0017   0.0000                   
sub_90460        R_1              j_90460          0.0830   7.229    16.2541  0.0000   0.0000                   
sub_90461        R_1              j_90461          0.0390   66.667   11.1419  0.0706   0.0000                   
sub_90462        R_1              j_90462          0.0830   53.012   16.2541  0.0020   0.0000                   
sub_90463        R_1              j_90463          0.0870   75.862   16.5453  0.0000   0.0000                   
sub_90464        R_1              j_90464          0.1020   59.804   17.9302  0.0137   0.0000                   
sub_90465        R_1              j_90465          0.0840   78.571   16.4488  0.0098   0.0000                   
sub_90466        R_1              j_90466          0.0960   62.500   17.5716  0.0119   0.0000                   
sub_90467        R_1              j_90467          0.1580   81.646   20.2638  0.0000   0.0000                   
sub_90468        R_1              j_90468          0.1210   64.463   15.7570  0.0171   0.0000                   
sub_90469        R_1              j_90469          0.0840   78.571   16.3518  0.0166   0.0000                   
sub_90470        R_1              j_90470          0.1060   63.208   18.2818  0.0075   0.0000                   
sub_90471        R_1              j_90471          0.1050   69.524   18.1946  0.0000   0.0000                   
sub_90477        R_1              j_90477          0.1440   79.167   21.4095  0.0000   0.0000                   
sub_90478        R_1              j_90478          0.0870   75.862   14.4943  0.0000   0.0000                   
sub_90479        R_1              j_90479          0.0750   42.667   10.0925  0.0000   0.0000                   
sub_90480        R_1              j_90480          0.1240   71.774   19.7869  0.0023   0.0000                   
sub_90481        R_1              j_90481          0.0950   64.211   17.2977  0.0000   0.0000                   
sub_90482        R_1              j_90482          0.0590   62.712   13.7041  0.0095   0.0000                   
sub_90483        R_1              j_90483          0.1040   25.000   9.0973   0.0072   0.0000                   
sub_90484        R_1              j_90484          0.0960   68.750   17.5716  0.0000   0.0000                   
sub_90485        R_1              j_90485          0.1420   43.662   21.1853  0.0025   0.0000                   
sub_90486        R_1              j_90486          0.1340   58.209   20.6527  0.0077   0.0000                   
sub_90487        R_1              j_90487          0.1900   64.211   24.6571  0.0021   0.0000                   
sub_90488        R_1              j_90488          0.1350   56.296   20.7296  0.0042   0.0000                   
sub_90489        R_1              j_90489          0.0860   77.907   15.9577  0.0071   0.0000                   
sub_90490        R_1              j_90490          0.0910   80.220   16.5453  0.0000   0.0000                   
sub_90491        R_1              j_90491          0.1030   76.699   18.0188  0.0000   0.0000                   
sub_90492        R_1              j_90492          0.1180   68.644   19.3805  0.0022   0.0000                   
sub_90493        R_1              j_90493          0.0890   78.652   16.2541  0.0094   0.0000                   
sub_90494        R_1              j_90494          0.0930   79.570   16.6412  0.0000   0.0000                   
sub_90495        R_1              j_90495          0.1000   68.000   17.8412  0.0047   0.0000                   
sub_90496        R_1              j_90496          0.0890   78.652   16.2541  0.0164   0.0000                   
sub_90497        R_1              j_90497          0.0940   80.851   16.8314  0.0048   0.0000                   
sub_90498        R_1              j_90498          0.1610   63.975   22.5676  0.0072   0.0000                   
sub_90499        R_1              j_90499          0.1370   37.226   20.8826  0.0032   0.0000                   
sub_90500        R_1              j_90500          0.1260   53.968   19.9471  0.0000   0.0000                   
sub_90501        R_1              j_90501          0.0990   79.798   17.7518  0.0059   0.0000                   
sub_90502        R_1              j_90502          0.1010   60.396   18.0188  0.0139   0.0000                   
sub_90503        R_1              j_90503          0.0720   77.778   15.1388  0.0033   0.0000                   
sub_90504        R_1              j_90504          0.0920   79.348   17.1127  0.0201   0.0000                   
sub_90505        R_1              j_90505          0.0950   75.789   17.2977  0.0097   0.0000                   
sub_90506        R_1              j_90506          0.0870   73.563   16.5453  0.0034   0.0000                   
sub_90507        R_1              j_90507          0.0940   72.340   17.3895  0.0034   0.0000                   
sub_90508        R_1              j_90508          0.0820   73.171   16.1559  0.0156   0.0000                   
sub_90509        R_1              j_90509          0.0740   44.595   15.3476  0.0207   0.0000                   
sub_90510        R_1              j_90510          0.0880   75.000   16.8314  0.0000   0.0000                   
sub_90511        R_1              j_90511          0.0490   57.143   12.4889  0.0124   0.0000                   
sub_90512        R_1              j_90512          0.1020   71.569   18.0188  0.0121   0.0000                   
sub_90513        R_1              j_90513          0.1850   80.541   24.3322  0.0000   0.0000                   
sub_90514        R_1              j_90514          0.1160   74.138   19.2983  0.0021   0.0000                   
sub_90515        R_1              j_90515          0.1080   54.630   18.5412  0.0869   0.0000                   
sub_90516        R_1              j_90516          0.0710   36.620   15.1388  0.1045   0.0000                   
sub_90517        R_1              j_90517          0.0720   54.167   15.1388  0.0090   0.0000                   
sub_90518        R_1              j_90518          0.0510   86.275   12.8655  0.0577   0.0000                   
sub_90519        R_1              j_90519          0.2100   49.048   23.3305  0.0021   0.0000                   
sub_90520        R_1              j_90520          0.1210   50.413   19.6254  0.0026   0.0000                   
sub_90521        R_1              j_90521          0.0650   70.769   14.3841  0.0145   0.0000                   
sub_90522        R_1              j_90522          0.0470   76.596   12.2313  0.0357   0.0000                   
sub_90523        R_1              j_90523          0.1240   70.968   19.9471  0.0066   0.0000                   
sub_90524        R_1              j_90524          0.1680   51.190   23.1249  0.0074   0.0000                   
sub_90525        R_1              j_90525          0.2440   38.525   23.2621  0.0025   0.0000                   
sub_90526        R_1              j_90526          0.0790   50.633   13.7041  0.0026   0.0000                   
sub_90527        R_1              j_90527          0.0910   36.264   15.0333  0.0041   0.0000                   
sub_90549        R_1              j_90549          0.0670   53.731   14.6037  0.0000   0.0000                   
sub_90550        R_1              j_90550          0.0440   100.000  11.8345  0.2050   0.0000                   
sub_90551        R_1              j_90551          0.0610   45.902   13.9345  0.0000   0.0000                   
sub_90552        R_1              j_90552          0.2980   77.852   27.1750  0.0245   0.0000                   
sub_90553        R_1              j_90553          0.0540   48.148   13.2314  0.0000   0.0000                   
sub_90554        R_1              j_90554          0.0770   50.649   15.6556  0.0037   0.0000                   
sub_90555        R_1              j_90555          0.0830   39.759   16.3518  0.0285   0.0000                   
sub_90556        R_1              j_90556          0.1500   34.000   19.1326  0.0043   0.0000                   
sub_90557        R_1              j_90557          0.1030   66.019   14.7123  0.0071   0.0000                   
sub_90558        R_1              j_90558          0.1690   65.680   23.1249  0.0053   0.0000                   
sub_90559        R_1              j_90559          0.1040   46.154   18.1946  0.0000   0.0000                   
sub_90560        R_1              j_90560          0.1620   55.556   22.7082  0.0023   0.0000                   
sub_90561        R_1              j_90561          0.1290   60.465   15.7570  0.0067   0.0000                   
sub_90562        R_1              j_90562          0.1230   63.415   15.7570  0.0102   0.0000                   
sub_90563        R_1              j_90563          0.1100   65.455   18.7121  0.0081   0.0000                   
sub_90564        R_1              j_90564          0.0870   70.115   16.7366  0.0041   0.0000                   
sub_90565        R_1              j_90565          0.1010   57.426   18.0188  0.0069   0.0000                   
sub_90566        R_1              j_90566          0.1030   56.311   13.5875  0.0023   0.0000                   
sub_90567        R_1              j_90567          0.0750   48.000   15.5536  0.0000   0.0000                   
sub_90568        R_1              j_90568          0.0420   100.000  11.5624  0.0224   0.0000                   
sub_90569        R_1              j_90569          0.0710   52.113   10.8524  0.0044   0.0000                   
sub_90570        R_1              j_90570          0.0560   42.857   13.3512  0.0083   0.0000                   
sub_90571        R_1              j_90571          0.0880   69.318   16.8314  0.0046   0.0000                   
sub_90572        R_1              j_90572          0.1050   69.524   18.2818  0.0000   0.0000                   
sub_90573        R_1              j_90573          0.0930   79.570   16.6412  0.0024   0.0000                   
sub_90574        R_1              j_90574          0.0820   76.829   15.6556  0.0070   0.0000                   
sub_90575        R_1              j_90575          0.1160   62.069   19.1326  0.0245   0.0000                   
sub_90576        R_1              j_90576          0.1140   58.772   19.0492  0.0031   0.0000                   
sub_90577        R_1              j_90577          0.0900   60.000   16.9257  0.0079   0.0000                   
sub_90578        R_1              j_90578          0.1290   65.116   20.1851  0.0334   0.0000                   
sub_90579        R_1              j_90579          0.1130   70.796   15.9577  0.0018   0.0000                   
sub_90580        R_1              j_90580          0.0940   39.362   16.3518  0.0000   0.0000                   
sub_90581        R_1              j_90581          0.0900   51.111   16.9257  0.0468   0.0000                   
sub_90582        R_1              j_90582          0.0990   61.616   17.7518  0.0174   0.0000                   
sub_90583        R_1              j_90583          0.0980   52.041   17.6619  0.0068   0.0000                   
sub_90584        R_1              j_90584          0.0930   73.118   17.3895  0.0047   0.0000                   
sub_90585        R_1              j_90585          0.1120   73.214   18.8814  0.0100   0.0000                   
sub_90586        R_1              j_90586          0.0950   70.526   17.4808  0.0000   0.0000                   
sub_90587        R_1              j_90587          0.0800   67.500   16.0571  0.0155   0.0000                   
sub_90588        R_1              j_90588          0.0760   77.632   15.6556  0.0036   0.0000                   
sub_90589        R_1              j_90589          0.0930   63.441   17.2055  0.0111   0.0000                   
sub_90590        R_1              j_90590          0.1250   64.800   20.1061  0.0027   0.0000                   
sub_90591        R_1              j_90591          0.0960   76.042   17.3895  0.0000   0.0000                   
sub_90592        R_1              j_90592          0.0990   76.768   17.7518  0.0000   0.0000                   
sub_90593        R_1              j_90593          0.0890   68.539   16.8314  0.0157   0.0000                   
sub_90594        R_1              j_90594          0.1340   61.194   20.6527  0.0031   0.0000                   
sub_90595        R_1              j_90595          0.0970   60.825   17.5716  0.0025   0.0000                   
sub_90596        R_1              j_90596          0.0810   77.778   16.0571  0.0026   0.0000                   
sub_90597        R_1              j_90597          0.0710   47.887   15.0333  0.0074   0.0000                   
sub_90598        R_1              j_90598          0.0580   48.276   13.7041  0.0026   0.0000                   
sub_90599        R_1              j_90599          0.0500   62.000   12.6157  0.0000   0.0000                   
sub_90600        R_1              j_90600          0.0550   65.455   13.3512  0.0601   0.0000                   
sub_90601        R_1              j_90601          0.0850   42.353   15.6556  0.0184   0.0000                   
sub_90602        R_1              j_90602          0.0840   57.143   16.3518  0.0000   0.0000                   
sub_90603        R_1              j_90603          0.0790   45.570   16.1559  0.0049   0.0000                   
sub_90604        R_1              j_90604          0.0880   63.636   16.7366  0.0054   0.0000                   
sub_90605        R_1              j_90605          0.1620   64.198   22.7082  0.0152   0.0000                   
sub_90606        R_1              j_90606          0.0870   59.770   16.7366  0.0089   0.0000                   
sub_90607        R_1              j_90607          0.0670   58.209   14.6037  0.0120   0.0000                   
sub_90608        R_1              j_90608          0.0820   50.000   16.0571  0.0059   0.0000                   
sub_90609        R_1              j_90609          0.0630   41.270   12.6157  0.0065   0.0000                   
sub_90610        R_1              j_90610          0.0720   43.056   12.8655  0.0089   0.0000                   
sub_90611        R_1              j_90611          0.0550   49.091   12.3608  0.0084   0.0000                   
sub_90612        R_1              j_90612          0.0800   42.500   15.9577  0.0072   0.0000                   
sub_90613        R_1              j_90613          0.1240   38.710   18.1946  0.0038   0.0000                   
sub_90615        R_1              j_90615          0.1610   47.826   15.6556  0.1494   0.0000                   
sub_90616        R_1              j_90616          0.1610   73.292   21.4095  0.0025   0.0000                   
sub_90617        R_1              j_90617          0.1330   65.414   18.9655  0.0024   0.0000                   
sub_90618        R_1              j_90618          0.2020   77.723   25.4199  0.0442   0.0000                   
sub_90619        R_1              j_90619          0.0560   96.429   13.3512  0.0168   0.0000                   
sub_90620        R_1              j_90620          0.0640   76.562   14.3841  0.3209   0.0000                   
sub_90621        R_1              j_90621          0.2140   50.467   22.6380  0.0079   0.0000                   
sub_90623        R_1              j_90623          0.1840   57.609   21.4837  0.0044   0.0000                   
sub_90624        R_1              j_90624          0.0440   59.091   12.1005  0.0030   0.0000                   
sub_90625        R_1              j_90625          0.0860   65.116   15.5536  0.0000   0.0000                   
sub_90626        R_1              j_90626          0.0740   68.919   14.2730  0.0119   0.0000                   
sub_90627        R_1              j_90627          0.1270   44.882   20.1851  0.0772   0.0000                   
sub_90628        R_1              j_90628          0.2060   54.854   25.5448  0.0061   0.0000                   
sub_90629        R_1              j_90629          0.1450   47.586   21.4837  0.0056   0.0000                   
sub_90630        R_1              j_90630          0.0860   77.907   14.6037  0.0454   0.0000                   
sub_90631        R_1              j_90631          0.0810   65.432   16.1559  0.0000   0.0000                   
sub_90632        R_1              j_90632          0.0810   64.198   16.0571  0.0025   0.0000                   
sub_90633        R_1              j_90633          0.0910   78.022   17.0195  0.0000   0.0000                   
sub_90634        R_1              j_90634          0.0600   66.667   13.8198  0.0000   0.0000                   
sub_90635        R_1              j_90635          0.0840   51.190   15.2436  0.0358   0.0000                   
sub_90636        R_1              j_90636          0.0920   63.043   16.0571  0.0059   0.0000                   
sub_90637        R_1              j_90637          0.1080   65.741   18.5412  0.0031   0.0000                   
sub_90638        R_1              j_90638          0.1550   80.000   22.2122  0.0088   0.0000                   
sub_90639        R_1              j_90639          0.1110   47.748   18.7969  0.0087   0.0000                   
sub_90640        R_1              j_90640          0.1220   73.770   18.8814  0.0031   0.0000                   
sub_90641        R_1              j_90641          0.1270   67.717   16.5453  0.0017   0.0000                   
sub_90642        R_1              j_90642          0.0810   59.259   12.3608  0.0035   0.0000                   
sub_90643        R_1              j_90643          0.1800   73.889   20.5755  0.0018   0.0000                   
sub_90644        R_1              j_90644          0.0930   77.419   15.1388  0.0033   0.0000                   
sub_90645        R_1              j_90645          0.0500   68.000   10.4031  0.0000   0.0000                   
sub_90646        R_1              j_90646          0.0850   40.000   10.4031  0.0205   0.0000                   
sub_90647        R_1              j_90647          0.1030   17.476   7.5694   0.0259   0.0000                   
sub_90648        R_1              j_90648          0.0690   78.261   13.1106  0.0031   0.0000                   
sub_90649        R_1              j_90649          0.1030   67.961   14.9271  0.0033   0.0000                   
sub_90650        R_1              j_90650          0.2030   68.473   25.3572  0.0037   0.0000                   
sub_90651        R_1              j_90651          0.1040   74.038   17.3895  0.0211   0.0000                   
sub_90652        R_1              j_90652          0.0730   67.123   14.1610  0.0066   0.0000                   
sub_90653        R_1              j_90653          0.0650   60.000   13.2314  0.0022   0.0000                   
sub_90654        R_1              j_90654          0.0240   54.167   8.5564   0.0000   0.0000                   
sub_90655        R_1              j_90655          0.1010   70.297   17.7518  0.0000   0.0000                   
sub_90656        R_1              j_90656          0.1080   47.222   18.5412  0.0044   0.0000                   